Network_data/Greensboro_GSO_urban_SH_BH/uhs7_1247/analysis/peak_transformer_overloads.csv
Loading (p.u.),Name,Bus and Phases,kVA,Number of Phases
1.0168802859533423,Transformer.tr(r:udt19159-udt19159lv),udt19159,75.0,3
1.0208897266988632,Transformer.tr(r:udt20607-udt20607lv),udt20607,75.0,3
1.0298677349447232,Transformer.tr(r:udt6921-udt6921lv),udt6921,75.0,3
1.0347837849085948,Transformer.tr(r:udt1059-udt1059lv),udt1059,75.0,3
1.0361890112785188,Transformer.tr(r:udt19455-udt19455lv),udt19455,75.0,3
1.0362864944753425,Transformer.tr(r:udt19609-udt19609lv),udt19609,75.0,3
1.0524465048992837,Transformer.tr(r:udt15894-udt15894lv),udt15894.1,75.0,1
1.0524743302518467,Transformer.tr(r:udt18156-udt18156lv),udt18156,75.0,3
1.064598255720906,Transformer.tr(r:udt18446-udt18446lv),udt18446,75.0,3
1.1818990967961442,Transformer.tr(r:udt3395-udt3395lv),udt3395.1,75.0,1
1.1835206081159906,Transformer.tr(r:udt274-udt274lv),udt274.2,50.0,1
1.2077258380140798,Transformer.tr(r:udt12627-udt12627lv),udt12627.2,50.0,1
1.2363181119016464,Transformer.tr(r:udt2310-udt2310lv),udt2310.1,75.0,1
1.2438293501834394,Transformer.tr(r:udt15929-udt15929lv),udt15929.1,50.0,1
1.2519355486945973,Transformer.tr(r:udt13266-udt13266lv),udt13266.3,50.0,1
1.2796415840422466,Transformer.tr(r:udt14975-udt14975lv),udt14975.3,50.0,1
1.2930421336132476,Transformer.tr(r:udt12428-udt12428lv),udt12428.1,50.0,1
1.3068992693918446,Transformer.tr(r:udt20540-udt20540lv),udt20540,150.0,3
1.3318886536405812,Transformer.tr(r:udt1781-udt1781lv),udt1781.2,50.0,1
1.3330790205084808,Transformer.tr(r:udt16407-udt16407lv),udt16407.2,50.0,1
1.333400430051774,Transformer.tr(r:udt14254-udt14254lv),udt14254,150.0,3
1.3335956264286468,Transformer.tr(r:udt2681-udt2681lv),udt2681,150.0,3
1.3417793708883115,Transformer.tr(r:udt14315-udt14315lv),udt14315.2,50.0,1
1.3469720172299027,Transformer.tr(r:udt11065-udt11065lv),udt11065.1,50.0,1
1.3547496686135414,Transformer.tr(r:udt3382-udt3382lv),udt3382.3,50.0,1
1.3565687147699732,Transformer.tr(r:udt9671-udt9671lv),udt9671.1,50.0,1
1.3918617373148552,Transformer.tr(r:udt19494-udt19494lv),udt19494.3,50.0,1
1.399834151781461,Transformer.tr(r:udt2297-udt2297lv),udt2297.2,50.0,1
1.4008825567777519,Transformer.tr(r:udt16232-udt16232lv),udt16232.1,50.0,1
1.4019244932867136,Transformer.tr(r:udt18830-udt18830lv),udt18830.1,50.0,1
1.4067861844020015,Transformer.tr(r:udt15246-udt15246lv),udt15246.1,50.0,1
1.4256233701197543,Transformer.tr(r:udt279-udt279lv),udt279.1,50.0,1
1.4389484097625005,Transformer.tr(r:udt1058-udt1058lv),udt1058.3,50.0,1
1.4512856108249566,Transformer.tr(r:udt2653-udt2653lv),udt2653.3,50.0,1
1.4612531103461381,Transformer.tr(r:udt14295-udt14295lv),udt14295.3,50.0,1
1.4687927419379145,Transformer.tr(r:udt14232-udt14232lv),udt14232.3,50.0,1
1.5056694870640988,Transformer.tr(r:udt16663-udt16663lv),udt16663.1,50.0,1
1.5059616845537007,Transformer.tr(r:udt15978-udt15978lv),udt15978.3,50.0,1
1.506357440678011,Transformer.tr(r:udt18432-udt18432lv),udt18432.1,50.0,1
1.518075595458958,Transformer.tr(r:udt17877-udt17877lv),udt17877.2,50.0,1
1.5209540334137375,Transformer.tr(r:udt6937-udt6937lv),udt6937,150.0,3
1.5264698385647655,Transformer.tr(r:udt17605-udt17605lv),udt17605.3,50.0,1
1.555521215422703,Transformer.tr(r:udt1799-udt1799lv),udt1799.2,50.0,1
1.5584853662557105,Transformer.tr(r:udt10099-udt10099lv),udt10099.1,50.0,1
1.5590426327511355,Transformer.tr(r:udt19190-udt19190lv),udt19190.2,50.0,1
1.5683764620543268,Transformer.tr(r:udt12150-udt12150lv),udt12150.2,50.0,1
1.5697363851165094,Transformer.tr(r:udt11140-udt11140lv),udt11140.3,50.0,1
1.5994594625573635,Transformer.tr(r:udt5057-udt5057lv),udt5057.1,50.0,1
1.6010328448520248,Transformer.tr(r:udt18440-udt18440lv),udt18440.3,50.0,1
1.6282356019566617,Transformer.tr(r:udt13791-udt13791lv),udt13791.3,50.0,1
1.6299038023985977,Transformer.tr(r:udt20414-udt20414lv),udt20414.3,50.0,1
1.6387920430044693,Transformer.tr(r:udt14129-udt14129lv),udt14129.3,50.0,1
1.6524366493108258,Transformer.tr(r:udt3415-udt3415lv),udt3415.3,50.0,1
1.6530396150553253,Transformer.tr(r:udt19491-udt19491lv),udt19491.3,50.0,1
1.6974867761086558,Transformer.tr(r:udt14455-udt14455lv),udt14455.1,50.0,1
1.7126002297335017,Transformer.tr(r:udt11916-udt11916lv),udt11916.2,50.0,1
1.7136575221947026,Transformer.tr(r:udt17420-udt17420lv),udt17420.1,50.0,1
1.7559273905872193,Transformer.tr(r:udt15495-udt15495lv),udt15495.1,50.0,1
1.81468373623777,Transformer.tr(r:udt2760-udt2760lv),udt2760.3,50.0,1
1.9617574697286833,Transformer.tr(r:udt12783-udt12783lv),udt12783.1,75.0,1
1.9875830434321886,Transformer.tr(r:udt5054-udt5054lv),udt5054.3,75.0,1
2.723912287941218,Transformer.tr(r:udt13789-udt13789lv),udt13789.2,50.0,1
2.8490134885216056,Transformer.tr(r:udt16748-udt16748lv),udt16748.1,25.0,1
2.8494524435558484,Transformer.tr(r:udt17401-udt17401lv),udt17401.3,25.0,1
2.851147426152735,Transformer.tr(r:udt1054-udt1054lv),udt1054.1,25.0,1
2.851222738934319,Transformer.tr(r:udt1053-udt1053lv),udt1053.1,25.0,1
2.877228614357042,Transformer.tr(r:udt18649-udt18649lv),udt18649.3,25.0,1
2.90762494322871,Transformer.tr(r:udt14530-udt14530lv),udt14530.2,25.0,1
2.9171255474418523,Transformer.tr(r:udt19939-udt19939lv),udt19939.3,25.0,1
2.922065960748488,Transformer.tr(r:udt11444-udt11444lv),udt11444.1,50.0,1
2.94513797470546,Transformer.tr(r:udt1798-udt1798lv),udt1798.3,25.0,1
2.94546753156832,Transformer.tr(r:udt18215-udt18215lv),udt18215,75.0,3
2.958379819139152,Transformer.tr(r:udt19917-udt19917lv),udt19917.3,25.0,1
2.966091068687616,Transformer.tr(r:udt18164-udt18164lv),udt18164.3,25.0,1
2.9856282401764904,Transformer.tr(r:udt16709-udt16709lv),udt16709.3,25.0,1
2.9925144561146,Transformer.tr(r:udt1779-udt1779lv),udt1779.3,75.0,1
3.008430137954799,Transformer.tr(r:udt18989-udt18989lv),udt18989.2,25.0,1
3.010295819814611,Transformer.tr(r:udt14740-udt14740lv),udt14740.3,25.0,1
3.015791418588588,Transformer.tr(r:udt2646-udt2646lv),udt2646.2,25.0,1
3.0161928363819426,Transformer.tr(r:udt276-udt276lv),udt276.1,50.0,1
3.0233524122866102,Transformer.tr(r:udt252-udt252lv),udt252.3,25.0,1
3.0238515087187867,Transformer.tr(r:udt20152-udt20152lv),udt20152.2,25.0,1
3.0263544786223413,Transformer.tr(r:udt11837-udt11837lv),udt11837.2,75.0,1
3.0312956077734086,Transformer.tr(r:udt1794-udt1794lv),udt1794.3,50.0,1
3.0448650791306555,Transformer.tr(r:udt275-udt275lv),udt275.2,25.0,1
3.047449660591041,Transformer.tr(r:udt13519-udt13519lv),udt13519.3,25.0,1
3.0601106567728693,Transformer.tr(r:udt11200-udt11200lv),udt11200,75.0,3
3.060710628762564,Transformer.tr(r:udt1795-udt1795lv),udt1795.3,75.0,1
3.0841234924582017,Transformer.tr(r:udt16143-udt16143lv),udt16143.2,25.0,1
3.1118726459291532,Transformer.tr(r:udt20445-udt20445lv),udt20445.1,25.0,1
3.1227813456720983,Transformer.tr(r:udt17102-udt17102lv),udt17102.1,25.0,1
3.1267372872947568,Transformer.tr(r:udt7913-udt7913lv),udt7913.1,25.0,1
3.1463590720386496,Transformer.tr(r:udt1800-udt1800lv),udt1800.1,50.0,1
3.1549830346412358,Transformer.tr(r:udt12637-udt12637lv),udt12637.2,25.0,1
3.160160385346609,Transformer.tr(r:udt20015-udt20015lv),udt20015.2,25.0,1
3.167350713900691,Transformer.tr(r:udt2769-udt2769lv),udt2769.2,25.0,1
3.17353574095539,Transformer.tr(r:udt16534-udt16534lv),udt16534.2,50.0,1
3.1832896174346192,Transformer.tr(r:udt11291-udt11291lv),udt11291.3,50.0,1
3.19068261985306,Transformer.tr(r:udt10101-udt10101lv),udt10101,75.0,3
3.2641740646982913,Transformer.tr(r:udt18403-udt18403lv),udt18403.1,25.0,1
3.268980032971397,Transformer.tr(r:udt15139-udt15139lv),udt15139.1,25.0,1
3.2954417344281324,Transformer.tr(r:udt2288-udt2288lv),udt2288.2,25.0,1
3.334423423209802,Transformer.tr(r:udt19435-udt19435lv),udt19435.1,25.0,1
3.3526805545674008,Transformer.tr(r:udt19168-udt19168lv),udt19168.1,25.0,1
3.3676008628292946,Transformer.tr(r:udt13370-udt13370lv),udt13370.3,25.0,1
3.368930259209555,Transformer.tr(r:udt20525-udt20525lv),udt20525.1,50.0,1
3.3733302183313087,Transformer.tr(r:udt20731-udt20731lv),udt20731.2,25.0,1
3.386116705878489,Transformer.tr(r:udt15968-udt15968lv),udt15968.3,25.0,1
3.392356336080892,Transformer.tr(r:udt18100-udt18100lv),udt18100.2,25.0,1
3.431460394114094,Transformer.tr(r:udt20035-udt20035lv),udt20035.3,25.0,1
3.453564726946945,Transformer.tr(r:udt13508-udt13508lv),udt13508.2,25.0,1
3.4677000080907225,Transformer.tr(r:udt10108-udt10108lv),udt10108.3,25.0,1
3.514879593728085,Transformer.tr(r:udt17740-udt17740lv),udt17740.2,25.0,1
3.5151076498664082,Transformer.tr(r:udt13525-udt13525lv),udt13525,75.0,3
4.033039776190375,Transformer.tr(r:udt1778-udt1778lv),udt1778.2,75.0,1
4.395773722749204,Transformer.tr(r:udt1057-udt1057lv),udt1057.3,50.0,1
4.516269511482715,Transformer.tr(r:udt12557-udt12557lv),udt12557.3,50.0,1
4.519918150513957,Transformer.tr(r:udt14029-udt14029lv),udt14029.2,50.0,1
6.491415180175686,Transformer.tr(r:udt11846-udt11846lv),udt11846.3,25.0,1
6.502057231300005,Transformer.tr(r:udt14160-udt14160lv),udt14160.3,25.0,1
